*------------------------------------------------------------
* 1N4007 General Purpose Rectifier Diode
*------------------------------------------------------------

.model 1N4007 D (
+ IS=2.52E-9
+ RS=0.568
+ N=1.73
+ BV=1000
+ IBV=5E-6
+ CJO=35E-12
+ VJ=0.75
+ M=0.333
+ TT=2.23E-6
)

.end