*BC547A
.model BC547A NPN (
+ IS=1.8E-14
+ BF=400
+ NF=0.9955
+ ISE=1.03E-14
+ NE=1.3
+ IKF=0.05
+ VAF=80
+ BR=9.5
+ NR=0.9952
+ ISC=4.7E-11
+ NC=2
+ IKR=0.012
+ VAR=10
+ RB=280
+ RE=1
+ RC=40
+ CJC=6.0E-12
+ VJC=0.48
+ MJC=0.33
+ CJE=1.2E-11
+ VJE=0.48
+ MJE=0.5
+ TF=5.0E-10
+ TR=5.0E-8
)

.end